Version 4
SHEET 1 880 680
FLAG 48 32 I1_in
IOPIN 48 32 BiDir
FLAG 48 80 I1_out
IOPIN 48 80 BiDir
FLAG 48 128 I2_in
IOPIN 48 128 BiDir
FLAG 48 176 I1_out
IOPIN 48 176 BiDir
FLAG 368 32 Phase
IOPIN 368 32 Out
