Version 4
SHEET 1 880 680
WIRE 0 -112 0 -128
WIRE 384 -112 0 -112
WIRE 384 -96 384 -112
WIRE -560 0 -608 0
WIRE -240 0 -384 0
WIRE 0 0 0 -112
WIRE 80 0 0 0
WIRE 256 0 80 0
WIRE -560 32 -656 32
WIRE 80 32 80 0
WIRE 32 48 -384 48
WIRE 256 48 256 0
WIRE -560 64 -656 64
WIRE -96 80 -384 80
WIRE 32 96 0 96
WIRE -464 112 -464 96
WIRE 0 144 0 96
WIRE 80 192 80 112
WIRE 256 192 256 112
WIRE 256 192 80 192
WIRE 464 192 256 192
WIRE 80 240 80 192
WIRE 256 240 80 240
WIRE 80 288 80 240
WIRE 256 288 256 240
WIRE -96 304 -96 80
WIRE 32 304 -96 304
WIRE 32 352 0 352
WIRE 80 400 80 368
WIRE 256 400 256 352
WIRE 256 400 80 400
WIRE 384 400 384 -32
WIRE 384 400 256 400
WIRE 544 400 384 400
WIRE 0 432 0 352
WIRE 384 448 384 400
WIRE 384 448 352 448
WIRE 432 448 384 448
WIRE 352 464 352 448
WIRE 352 544 352 528
WIRE 432 544 432 528
FLAG 464 192 Vout
IOPIN 464 192 Out
FLAG 544 400 SenseOut
IOPIN 544 400 Out
FLAG -464 112 COM
IOPIN -464 112 In
FLAG 432 544 COM
IOPIN 432 544 In
FLAG 352 544 COM
IOPIN 352 544 In
FLAG 0 -208 +24V
IOPIN 0 -208 In
FLAG -608 0 SenseIn
IOPIN -608 0 In
FLAG -240 0 Set
IOPIN -240 0 In
FLAG -656 64 CLK
IOPIN -656 64 In
FLAG -656 32 Vref
IOPIN -656 32 In
FLAG 0 432 COM
IOPIN 0 432 In
FLAG 0 144 COM
IOPIN 0 144 In
SYMBOL res -16 -224 R0
SYMATTR InstName R4
SYMATTR Value 0.0037R
SYMBOL res 416 432 R0
SYMATTR InstName R5
SYMATTR Value 0.008R
SYMBOL cap 368 -96 R0
SYMATTR InstName C1
SYMATTR Value 0.47µF
SYMBOL feedback -480 32 R0
WINDOW 0 8 -56 Bottom 2
SYMATTR InstName X1
SYMBOL sw 80 128 M180
SYMATTR InstName S1
SYMBOL sw 80 384 M180
SYMATTR InstName S2
SYMBOL diode 272 112 R180
WINDOW 0 24 64 Left 2
WINDOW 3 24 0 Left 2
SYMATTR InstName D2
SYMATTR Value Dideal
SYMBOL diode 272 352 R180
WINDOW 0 24 64 Left 2
WINDOW 3 24 0 Left 2
SYMATTR InstName D3
SYMATTR Value Dideal
SYMBOL diode 368 528 R180
WINDOW 0 24 64 Left 2
WINDOW 3 24 0 Left 2
SYMATTR InstName D1
SYMATTR Value Dideal
TEXT -704 576 Left 2 !.model SW SW(Ron=0.0001 Roff=100Meg Vt=2.0 Vh=0.0)
TEXT -704 608 Left 2 !.model Dideal D(Ron=0.0001 Roff=100Meg Vfwd=0)
