Version 4
SHEET 1 880 680
WIRE 16 48 -96 48
WIRE 560 48 304 48
WIRE 16 80 -48 80
WIRE 400 80 304 80
WIRE 16 112 -96 112
WIRE 400 112 304 112
WIRE -48 144 -48 80
WIRE 16 144 -48 144
WIRE 560 144 560 128
WIRE -48 176 -48 144
FLAG 560 144 0
FLAG 400 80 Angle
FLAG 400 112 Omega
FLAG -48 176 0
FLAG -96 48 Vbemf1
FLAG -96 112 Vbemf2
SYMBOL StepMotor 96 96 R0
WINDOW 39 1 70 Left 0
SYMATTR SpiceLine startOmega=56.8
SYMATTR InstName X1
SYMBOL voltage 560 32 R0
WINDOW 123 0 0 Left 0
WINDOW 39 0 0 Left 0
SYMATTR InstName V1
SYMATTR Value 0
TEXT -184 328 Left 2 !.tran 100m
