Version 4
SHEET 1 1912 1620
WIRE -112 64 -160 64
WIRE 960 64 912 64
WIRE -112 112 -224 112
WIRE 1008 112 912 112
WIRE -112 144 -160 144
WIRE 960 144 912 144
WIRE -112 176 -160 176
WIRE 960 176 912 176
WIRE -112 192 -144 192
WIRE 336 192 160 192
WIRE 640 192 368 192
WIRE 944 192 912 192
WIRE -112 224 -128 224
WIRE 256 224 160 224
WIRE 640 224 544 224
WIRE 928 224 912 224
WIRE -128 256 -128 224
WIRE 928 256 928 224
WIRE -160 320 -160 176
WIRE 544 320 544 224
WIRE 544 320 -160 320
WIRE 256 352 256 224
WIRE 960 352 960 176
WIRE 960 352 256 352
WIRE 336 400 336 192
WIRE 464 400 336 400
WIRE 976 400 752 400
WIRE 976 416 976 400
WIRE 368 432 368 192
WIRE 464 432 368 432
WIRE 816 432 752 432
WIRE 464 464 416 464
WIRE 816 464 752 464
WIRE 464 496 448 496
WIRE 816 496 752 496
WIRE 976 512 976 496
WIRE -112 576 -160 576
WIRE 960 576 912 576
WIRE -112 624 -224 624
WIRE 1008 624 912 624
WIRE -112 656 -160 656
WIRE 960 656 912 656
WIRE -112 688 -160 688
WIRE 960 688 912 688
WIRE -112 704 -144 704
WIRE 416 704 416 464
WIRE 416 704 160 704
WIRE 448 704 448 496
WIRE 640 704 448 704
WIRE 944 704 912 704
WIRE -112 736 -128 736
WIRE 256 736 160 736
WIRE 640 736 544 736
WIRE 928 736 912 736
WIRE -128 768 -128 736
WIRE 928 768 928 736
WIRE -160 832 -160 688
WIRE 544 832 544 736
WIRE 544 832 -160 832
WIRE 256 864 256 736
WIRE 960 864 960 688
WIRE 960 864 256 864
FLAG -224 -16 0
FLAG -224 -96 +24V
FLAG -128 256 0
FLAG 928 256 0
FLAG -160 64 +24V
FLAG 960 64 +24V
FLAG -224 192 0
FLAG 1008 192 0
FLAG 0 -16 0
FLAG 0 -96 CLK
FLAG 288 -16 0
FLAG 288 -96 Vref
FLAG -160 144 CLK
FLAG 960 144 CLK
FLAG -144 192 Vref
FLAG 944 192 Vref
FLAG -128 768 0
FLAG 928 768 0
FLAG -160 576 +24V
FLAG 960 576 +24V
FLAG -224 704 0
FLAG 1008 704 0
FLAG -160 656 CLK
FLAG 960 656 CLK
FLAG -144 704 Vref
FLAG 944 704 Vref
FLAG 816 432 Angle
FLAG 816 464 Omega
FLAG 816 496 Torque
FLAG 976 512 0
SYMBOL voltage -224 -112 R0
WINDOW 123 0 0 Left 0
WINDOW 39 0 0 Left 0
SYMATTR InstName V2
SYMATTR Value 24
SYMBOL voltage -224 96 R0
WINDOW 3 -326 34 Left 2
WINDOW 123 0 0 Left 0
WINDOW 39 0 0 Left 0
SYMATTR Value PULSE(0 5 0 10n 10n 40m 80m)
SYMATTR InstName V1
SYMBOL voltage 1008 96 R0
WINDOW 3 -84 28 Left 2
WINDOW 123 0 0 Left 0
WINDOW 39 0 0 Left 0
SYMATTR Value PULSE(0 5 40m 10n 10n 40m 80m)
SYMATTR InstName V3
SYMBOL voltage 288 -112 R0
WINDOW 123 0 0 Left 0
WINDOW 39 0 0 Left 0
SYMATTR InstName V4
SYMATTR Value 0.0224
SYMBOL voltage 0 -112 R0
WINDOW 3 -140 73 Left 2
WINDOW 123 0 0 Left 0
WINDOW 39 0 0 Left 0
SYMATTR Value PULSE(0 5 0 10n 10n 1u 33.333u)
SYMATTR InstName V5
SYMBOL voltage -224 608 R0
WINDOW 3 -291 25 Left 2
WINDOW 123 0 0 Left 0
WINDOW 39 0 0 Left 0
SYMATTR Value PULSE(0 5 20m 10n 10n 40m 80m)
SYMATTR InstName V7
SYMBOL voltage 1008 608 R0
WINDOW 3 -88 30 Left 2
WINDOW 123 0 0 Left 0
WINDOW 39 0 0 Left 0
SYMATTR Value PULSE(5 0 20m 10n 10n 40m 80m)
SYMATTR InstName V8
SYMBOL StepMotor 544 448 R0
SYMATTR InstName X7
SYMBOL voltage 976 400 R0
WINDOW 123 0 0 Left 0
WINDOW 39 0 0 Left 0
SYMATTR InstName V6
SYMATTR Value 0
SYMBOL HalfBridgeIdeal 16 160 R0
SYMATTR InstName X1
SYMBOL HalfBridgeIdeal 16 672 R0
SYMATTR InstName X2
SYMBOL HalfBridgeIdeal 784 160 M0
SYMATTR InstName X3
SYMBOL HalfBridgeIdeal 784 672 M0
SYMATTR InstName X4
TEXT -232 920 Left 2 !.tran 120ms startup
