Version 4
SHEET 1 880 680
WIRE -16 -112 -128 -112
WIRE -128 -48 -128 -112
WIRE -16 32 -16 -112
WIRE 96 32 -16 32
WIRE 496 48 384 48
WIRE -128 64 -128 32
WIRE 96 64 -128 64
WIRE 496 80 384 80
WIRE 96 96 -128 96
WIRE 496 112 384 112
WIRE 96 128 -16 128
WIRE -128 272 -128 176
WIRE -16 272 -16 128
WIRE -16 272 -128 272
FLAG 496 48 Angle
FLAG 496 80 Omega
FLAG 496 112 Torque
SYMBOL StepMotor 176 80 R0
SYMATTR InstName X1
SYMBOL current -128 32 R180
WINDOW 0 24 80 Left 2
WINDOW 3 24 0 Left 2
WINDOW 123 0 0 Left 0
WINDOW 39 0 0 Left 0
SYMATTR InstName I1
SYMATTR Value PULSE(2.7 -2.7 0 1m 1m 80m 160m)
SYMBOL current -128 176 R180
WINDOW 0 24 80 Left 2
WINDOW 3 24 0 Left 2
WINDOW 123 0 0 Left 0
WINDOW 39 0 0 Left 0
SYMATTR InstName I2
SYMATTR Value PULSE(2.7 -2.7 40m 1m 1m 80m 160m)
TEXT -608 384 Left 2 !.tran 320m
