Version 4
SHEET 1 1912 1620
WIRE -112 64 -160 64
WIRE 304 64 160 64
WIRE 640 64 544 64
WIRE 960 64 912 64
WIRE 1440 64 1264 64
WIRE 304 96 160 96
WIRE 640 96 544 96
WIRE -112 112 -224 112
WIRE 1008 112 912 112
WIRE 192 128 160 128
WIRE 640 128 608 128
WIRE -112 144 -160 144
WIRE 960 144 912 144
WIRE 192 160 160 160
WIRE 640 160 608 160
WIRE 1424 160 1264 160
WIRE 1440 160 1440 64
WIRE 1456 160 1440 160
WIRE -112 176 -160 176
WIRE 960 176 912 176
WIRE -112 192 -144 192
WIRE 336 192 160 192
WIRE 640 192 368 192
WIRE 944 192 912 192
WIRE 1424 192 1424 160
WIRE 1456 192 1424 192
WIRE 1648 208 1600 208
WIRE -112 224 -128 224
WIRE 256 224 160 224
WIRE 640 224 544 224
WIRE 928 224 912 224
WIRE 1456 224 1424 224
WIRE -128 256 -128 224
WIRE 928 256 928 224
WIRE 1424 256 1424 224
WIRE 1424 256 1264 256
WIRE 1456 256 1440 256
WIRE -160 320 -160 176
WIRE 544 320 544 224
WIRE 544 320 -160 320
WIRE 1440 336 1440 256
WIRE 1440 336 1264 336
WIRE 256 352 256 224
WIRE 960 352 960 176
WIRE 960 352 256 352
WIRE 336 400 336 192
WIRE 464 400 336 400
WIRE 816 416 752 416
WIRE 368 432 368 192
WIRE 464 432 368 432
WIRE 816 448 752 448
WIRE 464 464 416 464
WIRE 816 480 752 480
WIRE 464 496 448 496
WIRE 1440 560 1264 560
WIRE -112 576 -160 576
WIRE 304 576 160 576
WIRE 640 576 544 576
WIRE 960 576 912 576
WIRE 304 608 160 608
WIRE 640 608 544 608
WIRE -112 624 -224 624
WIRE 1008 624 912 624
WIRE 192 640 160 640
WIRE 640 640 608 640
WIRE -112 656 -160 656
WIRE 960 656 912 656
WIRE 1424 656 1264 656
WIRE 1440 656 1440 560
WIRE 1456 656 1440 656
WIRE 192 672 160 672
WIRE 640 672 608 672
WIRE -112 688 -160 688
WIRE 960 688 912 688
WIRE 1424 688 1424 656
WIRE 1456 688 1424 688
WIRE -112 704 -144 704
WIRE 416 704 416 464
WIRE 416 704 160 704
WIRE 448 704 448 496
WIRE 640 704 448 704
WIRE 944 704 912 704
WIRE 1648 704 1600 704
WIRE 1456 720 1424 720
WIRE -112 736 -128 736
WIRE 256 736 160 736
WIRE 640 736 544 736
WIRE 928 736 912 736
WIRE 1424 752 1424 720
WIRE 1424 752 1264 752
WIRE 1456 752 1440 752
WIRE -128 768 -128 736
WIRE 928 768 928 736
WIRE -160 832 -160 688
WIRE 544 832 544 736
WIRE 544 832 -160 832
WIRE 1440 832 1440 752
WIRE 1440 832 1264 832
WIRE 256 864 256 736
WIRE 960 864 960 688
WIRE 960 864 256 864
FLAG -224 -16 0
FLAG -224 -96 +24V
FLAG 1264 64 T1vt8
FLAG 1264 160 T1vt2
FLAG 1264 256 T1vt9
FLAG 1264 336 T1vt3
FLAG -128 256 0
FLAG 928 256 0
FLAG -160 64 +24V
FLAG 960 64 +24V
FLAG 304 64 T1vt8
FLAG 304 96 T1vt9
FLAG 544 64 T1vt2
FLAG 544 96 T1vt3
FLAG -224 192 0
FLAG 1008 192 0
FLAG 1648 208 Trad1
FLAG 192 128 T1jvt8
FLAG 192 160 T1jvt9
FLAG 608 128 T1jvt2
FLAG 608 160 T1jvt3
FLAG 0 -16 0
FLAG 0 -96 CLK
FLAG 288 -16 0
FLAG 288 -96 Vref
FLAG -160 144 CLK
FLAG 960 144 CLK
FLAG -144 192 Vref
FLAG 944 192 Vref
FLAG 0 256 P1vt8
FLAG 32 256 P1vt9
FLAG 800 256 P1vt2
FLAG 768 256 P1vt3
FLAG 1264 560 T2vt8
FLAG 1264 656 T2vt2
FLAG 1264 752 T2vt9
FLAG 1264 832 T2vt3
FLAG -128 768 0
FLAG 928 768 0
FLAG -160 576 +24V
FLAG 960 576 +24V
FLAG 304 576 T2vt8
FLAG 304 608 T2vt9
FLAG 544 576 T2vt2
FLAG 544 608 T2vt3
FLAG -224 704 0
FLAG 1008 704 0
FLAG 1648 704 Trad2
FLAG 192 640 T2jvt8
FLAG 192 672 T2jvt9
FLAG 608 640 T2jvt2
FLAG 608 672 T2jvt3
FLAG -160 656 CLK
FLAG 960 656 CLK
FLAG -144 704 Vref
FLAG 944 704 Vref
FLAG 0 768 P2vt8
FLAG 32 768 P2vt9
FLAG 800 768 P2vt2
FLAG 768 768 P2vt3
FLAG 816 416 Angle
FLAG 816 448 Omega
FLAG 816 480 Torque
SYMBOL voltage -224 -112 R0
WINDOW 123 0 0 Left 0
WINDOW 39 0 0 Left 0
SYMATTR InstName V2
SYMATTR Value 24
SYMBOL HalfBridge 16 144 R0
WINDOW 39 60 136 Bottom 2
SYMATTR SpiceLine Tup=vt8_temp Tdown=vt9_temp
SYMATTR InstName X1
SYMBOL HalfBridge 784 144 M0
WINDOW 39 55 137 Bottom 2
SYMATTR SpiceLine Tup=vt2_temp Tdown=vt3_temp
SYMATTR InstName X2
SYMBOL voltage -224 96 R0
WINDOW 3 -326 34 Left 2
WINDOW 123 0 0 Left 0
WINDOW 39 0 0 Left 0
SYMATTR Value PULSE(0 5 0 10n 10n 40m 80m)
SYMATTR InstName V1
SYMBOL voltage 1008 96 R0
WINDOW 3 -84 28 Left 2
WINDOW 123 0 0 Left 0
WINDOW 39 0 0 Left 0
SYMATTR Value PULSE(0 5 40m 10n 10n 40m 80m)
SYMATTR InstName V3
SYMBOL Radiator 1520 208 R0
WINDOW 39 128 102 Bottom 2
SYMATTR SpiceLine Tambient=25 Tinit=rad_temp Rcontact=1.88
SYMATTR InstName X3
SYMBOL voltage 288 -112 R0
WINDOW 123 0 0 Left 0
WINDOW 39 0 0 Left 0
SYMATTR InstName V4
SYMATTR Value 0.0224
SYMBOL voltage 0 -112 R0
WINDOW 3 -140 73 Left 2
WINDOW 123 0 0 Left 0
WINDOW 39 0 0 Left 0
SYMATTR Value PULSE(0 5 0 10n 10n 1u 33.333u)
SYMATTR InstName V5
SYMBOL HalfBridge 16 656 R0
WINDOW 39 60 136 Bottom 2
SYMATTR SpiceLine Tup=vt8_temp Tdown=vt9_temp
SYMATTR InstName X4
SYMBOL HalfBridge 784 656 M0
WINDOW 39 55 137 Bottom 2
SYMATTR SpiceLine Tup=vt2_temp Tdown=vt3_temp
SYMATTR InstName X5
SYMBOL voltage -224 608 R0
WINDOW 3 -291 25 Left 2
WINDOW 123 0 0 Left 0
WINDOW 39 0 0 Left 0
SYMATTR Value PULSE(0 5 20m 10n 10n 40m 80m)
SYMATTR InstName V7
SYMBOL voltage 1008 608 R0
WINDOW 3 -88 30 Left 2
WINDOW 123 0 0 Left 0
WINDOW 39 0 0 Left 0
SYMATTR Value PULSE(0 5 60m 10n 10n 40m 80m)
SYMATTR InstName V8
SYMBOL Radiator 1520 704 R0
WINDOW 39 128 102 Bottom 2
SYMATTR SpiceLine Tambient=25 Tinit=rad_temp Rcontact=1.88
SYMATTR InstName X6
SYMBOL StepMotor 544 448 R0
SYMATTR InstName X7
TEXT -256 -296 Left 2 !.param rad_temp=25
TEXT -256 -256 Left 2 !.param vt8_temp=25
TEXT -256 -232 Left 2 !.param vt9_temp=25
TEXT -256 -208 Left 2 !.param vt2_temp=25
TEXT -256 -184 Left 2 !.param vt3_temp=25
TEXT 224 -352 Left 2 !.option cshunt=1e-16 reltol=0.0001 abstol=1e-11 gmin=1e-11
TEXT 224 -288 Left 2 !.tran 160ms startup
